/*--------------------------------*- C++ -*----------------------------------*\
  =========                 |
  \\      /  F ield         | OpenFOAM: The Open Source CFD Toolbox
   \\    /   O peration     | Website:  www.openfoam.com
    \\  /    A nd           |
     \\/     M anipulation  |
\*---------------------------------------------------------------------------*/
FoamFile
{
    version     2.0;
    format      ascii;
    class       volScalarField;
    object      k;
}
// * * * * * * * * * * * * * * * * * * * * * * * * * * * * * * * * * * * * * //

dimensions      [0 2 -2 0 0 0 0];

internalField   uniform 0.01;

boundaryField
{
    inlet
    {
        type            fixedValue;
        value           uniform 0.01;
    }

    outlet
    {
        type            zeroGradient;
    }

    walls
    {
        type            kqRWallFunction;
        value           uniform 0.01;
    }

    top
    {
        type            symmetry;
    }

    // Qui diciamo a OpenFOAM come gestire la turbolenza sulla piastra NASA
    "aerofreno"
    {
        type            kqRWallFunction;
        value           uniform 0.01;
    }
}

// ************************************************************************* //